/*--------------------------------*- C++ -*----------------------------------*\
| =========                 |                                                 |
| \\      /  F ield         | OpenFOAM: The Open Source CFD Toolbox           |
|  \\    /   O peration     | Version:  plus                                  |
|   \\  /    A nd           | Web:      www.OpenFOAM.org                      |
|    \\/     M anipulation  |                                                 |
\*---------------------------------------------------------------------------*/
FoamFile
{
    version     2.0;
    format      ascii;
    class       volScalarField;
    location    "0";
    object      e;
}
// * * * * * * * * * * * * * * * * * * * * * * * * * * * * * * * * * * * * * //

dimensions      [0 2 -2 0 0 0 0];

internalField   uniform 214650;

boundaryField
{
    cylinder
    {
        type            fixedValue;
        value           uniform 214650;
    }
    symmetry1
    {
        type            symmetry;
    }
    symmetry2
    {
        type            symmetry;
    }
    inout
    {
        type            inletOutlet;
        inletValue      uniform 214650;
        value           uniform 214650;
    }
}


// ************************************************************************* //